cmaq2hemco Example Gallery
==========================

This gallery houses examples on how to use cmaq2hemco to do convert
various datasets from CMAQ-ready inputs to HEMCO/GEOS-Chem ready
inputs.

.. code-block:: bash

   python -m pip install --user cmaq2hemco pyrsig pycno pyproj netcdf4

In notebooks (e.g., on Google Colab), this can be done live with
the command below (may require kernel restart):

.. code-block:: python

   %pip install --user pyrsig pycno pyproj netcdf4

To run an example in a notebook:

1. Copy the command above into a new cell and run it.
2. Click on example below to see code.
3. Copy the code from the example into a new cell and run it.

